#\#CIF1.1
##########################################################################
#               Crystallographic Information Format file 
#               Produced by PyCifRW module
# 
#  This is a CIF file.  CIF has been adopted by the International
#  Union of Crystallography as the standard for data archiving and 
#  transmission.
#
#  For information on this file format, follow the CIF links at
#  http://www.iucr.org
##########################################################################

data_LiCoO2
_symmetry_space_group_name_H-M          'P 1'
_cell_length_a                          2.8333970827
_cell_length_b                          2.8333970827
_cell_length_c                          14.0925022018
_cell_angle_alpha                       90.0
_cell_angle_beta                        90.0
_cell_angle_gamma                       120.0
_chemical_name_systematic               'Generated by pymatgen'
_symmetry_Int_Tables_number             1
_chemical_formula_structural            LiCoO2
_chemical_formula_sum                   'Li3 Co3 O6'
_cell_volume                            97.9791410598
_cell_formula_units_Z                   3
loop_
  _symmetry_equiv_pos_site_id
  _symmetry_equiv_pos_as_xyz
   1  'x, y, z'
 
loop_
  _atom_site_type_symbol
  _atom_site_label
  _atom_site_symmetry_multiplicity
  _atom_site_fract_x
  _atom_site_fract_y
  _atom_site_fract_z
  _atom_site_attached_hydrogens
  _atom_site_B_iso_or_equiv
  _atom_site_occupancy
   Li  Li1  1  0.000000  0.000000  0.500000  0  .  1
   Li  Li2  1  0.666667  0.333333  0.833333  0  .  1
   Li  Li3  1  0.333333  0.666667  0.166667  0  .  1
   Co  Co4  1  0.000000  0.000000  0.000000  0  .  1
   Co  Co5  1  0.666667  0.333333  0.333333  0  .  1
   Co  Co6  1  0.333333  0.666667  0.666667  0  .  1
   O  O7  1  0.000000  0.000000  0.260185  0  .  1
   O  O8  1  0.666667  0.333333  0.593519  0  .  1
   O  O9  1  0.333333  0.666667  0.926852  0  .  1
   O  O10  1  0.000000  0.000000  0.739815  0  .  1
   O  O11  1  0.666667  0.333333  0.073148  0  .  1
   O  O12  1  0.333333  0.666667  0.406481  0  .  1
 
