data_global _chemical_name MyName
_cell_length_a 21.213203
_cell_length_b 7.071068
_cell_length_c 28.284271
_cell_angle_alpha 90.000000
_cell_angle_beta 109.471221
_cell_angle_gamma 90.000000
_symmetry_space_group_name_H-M 'P 1'
loop_
_atom_site_label
_atom_site_fract_x
_atom_site_fract_y
_atom_site_fract_z
Na 0.250000 0.500000 0.187500
Na 0.250000 0.500000 0.437500
Mg 0.250000 0.500000 0.687500
Mg 0.250000 0.500000 0.937500
Na 0.750000 0.500000 0.312500
Mg 1.000000 1.000000 0.250000
Mg 0.750000 0.500000 0.562500
Na 1.000000 1.000000 0.500000
Mg 0.750000 0.500000 0.812500
Na 1.000000 1.000000 0.750000
Na 0.750000 0.500000 0.062500
Mg 1.000000 1.000000 1.000000
Na 0.500000 1.000000 0.125000
Mg 0.500000 1.000000 0.375000
Mg 0.500000 1.000000 0.625000
Na 0.500000 1.000000 0.875000
Cl 1.000000 0.500000 0.125000
Cl 1.000000 0.500000 0.375000
Cl 1.000000 0.500000 0.625000
Cl 1.000000 0.500000 0.875000
Cl 0.500000 0.500000 0.250000
Cl 0.750000 1.000000 0.187500
Cl 0.500000 0.500000 0.500000
Cl 0.750000 1.000000 0.437500
Cl 0.500000 0.500000 0.750000
Cl 0.750000 1.000000 0.687500
Cl 0.500000 0.500000 1.000000
Cl 0.750000 1.000000 0.937500
Cl 0.250000 1.000000 0.062500
Cl 0.250000 1.000000 0.312500
Cl 0.250000 1.000000 0.562500
Cl 0.250000 1.000000 0.812500
