# generated using pymatgen
data_Ni
_symmetry_space_group_name_H-M   'P 1'
_cell_length_a   2.48194480
_cell_length_b   2.48194480
_cell_length_c   48.63598663
_cell_angle_alpha   90.00000000
_cell_angle_beta   90.00000000
_cell_angle_gamma   120.00000000
_symmetry_Int_Tables_number   1
_chemical_formula_structural   Ni
_chemical_formula_sum   Ni14
_cell_volume   259.46130526
_cell_formula_units_Z   14
loop_
 _symmetry_equiv_pos_site_id
 _symmetry_equiv_pos_as_xyz
  1  'x, y, z'
loop_
 _atom_site_type_symbol
 _atom_site_label
 _atom_site_symmetry_multiplicity
 _atom_site_fract_x
 _atom_site_fract_y
 _atom_site_fract_z
 _atom_site_occupancy
  Ni  Ni1  1  0.333333  0.666667  0.270833  1
  Ni  Ni2  1  0.000000  0.000000  0.354167  1
  Ni  Ni3  1  0.666667  0.333333  0.312500  1
  Ni  Ni4  1  0.333333  0.666667  0.395833  1
  Ni  Ni5  1  0.000000  0.000000  0.479167  1
  Ni  Ni6  1  0.666667  0.333333  0.437500  1
  Ni  Ni7  1  0.333333  0.666667  0.520833  1
  Ni  Ni8  1  0.000000  0.000000  0.604167  1
  Ni  Ni9  1  0.666667  0.333333  0.562500  1
  Ni  Ni10  1  0.333333  0.666667  0.645833  1
  Ni  Ni11  1  1.000000  1.000000  0.729167  1
  Ni  Ni12  1  0.666667  0.333333  0.687500  1
  Ni  Ni13  1  0.666670  0.333330  0.770833  1
  Ni  Ni14  1  -0.333337  0.333337  -0.770833  1
