
data_
_chemical_name_mineral ?NaxMnO2?
_cell_length_a 2.871(2)
_cell_length_b 5.369(4)
_cell_length_c 11.461(6)
_cell_angle_alpha 90
_cell_angle_beta 90
_cell_angle_gamma 90
_cell_volume 176.7(2)
_symmetry_space_group_name_H-M Cmcm
loop_
	_symmetry_equiv_pos_as_xyz
	 'x, y, z '
	 '-x, -y, z+1/2 '
	 '-x, y, -z+1/2 '
	 '-x, y, z '
	 'x, -y, -z '
	 'x, -y, z+1/2 '
	 'x, y, -z+1/2 '
	 '-x, -y, -z '
	 'x+1/2, y+1/2, z '
	 '-x+1/2, -y+1/2, z+1/2 '
	 '-x+1/2, y+1/2, -z+1/2 '
	 '-x+1/2, y+1/2, z '
	 'x+1/2, -y+1/2, -z '
	 'x+1/2, -y+1/2, z+1/2 '
	 'x+1/2, y+1/2, -z+1/2 '
	 '-x+1/2, -y+1/2, -z '
loop_
_atom_site_label
_atom_site_type_symbol
_atom_site_symmetry_multiplicity
_atom_site_fract_x
_atom_site_fract_y
_atom_site_fract_z
_atom_site_occupancy
_atom_site_B_iso_or_equiv
Na1 Na   4 0 -0.07 0.25 0.85(6) 5
Na2 Na   4 0 0.661 0.25 0.00(9) 5
Mn3 Mn   4 0 0 0 0.74(3) 5
O4 O   8 0 0.659 0.9096 1.36(9) 5
