#\#CIF1.1
##########################################################################
#               Crystallographic Information Format file 
#               Produced by PyCifRW module
# 
#  This is a CIF file.  CIF has been adopted by the International
#  Union of Crystallography as the standard for data archiving and 
#  transmission.
#
#  For information on this file format, follow the CIF links at
#  http://www.iucr.org
##########################################################################

data_Si
_symmetry_space_group_name_H-M          'P 1'
_cell_length_a                          3.86697462
_cell_length_b                          3.86697462
_cell_length_c                          3.86697462
_cell_angle_alpha                       60.0000000
_cell_angle_beta                        60.0000000
_cell_angle_gamma                       60.0000000
_chemical_name_systematic               'CIF file for abipy tests'
_symmetry_Int_Tables_number             1
_chemical_formula_structural            Si
_chemical_formula_sum                   Si2
_cell_volume                            40.8882918885
_cell_formula_units_Z                   2
loop_
  _symmetry_equiv_pos_site_id
  _symmetry_equiv_pos_as_xyz
   1  'x, y, z'
 
loop_
  _atom_site_type_symbol
  _atom_site_label
  _atom_site_symmetry_multiplicity
  _atom_site_fract_x
  _atom_site_fract_y
  _atom_site_fract_z
  _atom_site_attached_hydrogens
  _atom_site_B_iso_or_equiv
  _atom_site_occupancy
   Si  Si1  1  0.000000  0.000000  0.000000  0  .  1
   Si  Si2  1  0.250000  0.250000  0.250000  0  .  1
 
