#\#CIF1.1
##########################################################################
#               Crystallographic Information Format file 
#               Produced by PyCifRW module
# 
#  This is a CIF file.  CIF has been adopted by the International
#  Union of Crystallography as the standard for data archiving and 
#  transmission.
#
#  For information on this file format, follow the CIF links at
#  http://www.iucr.org
##########################################################################

data_Fe2B
_symmetry_space_group_name_H-M          'P 1'
_cell_length_a                          4.15793210566
_cell_length_b                          4.15793210493
_cell_length_c                          4.15793211078
_cell_angle_alpha                       105.015053355
_cell_angle_beta                        105.015053363
_cell_angle_gamma                       118.806584082
_chemical_name_systematic               'Generated by pymatgen'
_symmetry_Int_Tables_number             1
_chemical_formula_structural            Fe2B
_chemical_formula_sum                   'Fe4 B2'
_cell_volume                            54.2186410636
_cell_formula_units_Z                   2
loop_
  _symmetry_equiv_pos_site_id
  _symmetry_equiv_pos_as_xyz
   1  'x, y, z'
 
loop_
  _atom_site_type_symbol
  _atom_site_label
  _atom_site_symmetry_multiplicity
  _atom_site_fract_x
  _atom_site_fract_y
  _atom_site_fract_z
  _atom_site_attached_hydrogens
  _atom_site_B_iso_or_equiv
  _atom_site_occupancy
   B  B1  1  0.750000  0.750000  0.000000  0  .  1
   B  B2  1  0.250000  0.250000  0.000000  0  .  1
   Fe  Fe3  1  0.166593  0.666593  0.833186  0  .  1
   Fe  Fe4  1  0.333407  0.166593  0.500000  0  .  1
   Fe  Fe5  1  0.833407  0.333407  0.166814  0  .  1
   Fe  Fe6  1  0.666593  0.833407  0.500000  0  .  1
 
