#======================================================================

# CRYSTAL DATA

#----------------------------------------------------------------------

data_VESTA_phase_1


_pd_phase_name                         'As                                    '
_cell_length_a                         3.82055
_cell_length_b                         3.82055
_cell_length_c                         10.78963
_cell_angle_alpha                      90
_cell_angle_beta                       90
_cell_angle_gamma                      120
_symmetry_space_group_name_H-M         'P 1'
_symmetry_Int_Tables_number            1

loop_
_symmetry_equiv_pos_as_xyz
   'x, y, z'

loop_
   _atom_site_label
   _atom_site_occupancy
   _atom_site_fract_x
   _atom_site_fract_y
   _atom_site_fract_z
   _atom_site_thermal_displace_type
   _atom_site_B_iso_or_equiv
   _atom_site_type_symbol
   As1      1.0    0            0            0.22657     Biso  1.000  As
   As2      1.0    0            0            0.77343     Biso  1.000  As
   As3      1.0    0.66667      0.33333      0.55990     Biso  1.000  As
   As4      1.0    0.66667      0.33333      0.10676     Biso  1.000  As
   As5      1.0    0.33333      0.66667      0.89324     Biso  1.000  As
   As6      1.0    0.33333      0.66667      0.44010     Biso  1.000  As
