#======================================================================

# CRYSTAL DATA

#----------------------------------------------------------------------

data_VESTA_phase_1


_pd_phase_name                         'B                                     '
_cell_length_a                         4.90067
_cell_length_b                         4.90067
_cell_length_c                         5.05098
_cell_angle_alpha                      119.02035
_cell_angle_beta                       60.97965
_cell_angle_gamma                      120
_symmetry_space_group_name_H-M         'P 1'
_symmetry_Int_Tables_number            1

loop_
_symmetry_equiv_pos_as_xyz
   'x, y, z'

loop_
   _atom_site_label
   _atom_site_occupancy
   _atom_site_fract_x
   _atom_site_fract_y
   _atom_site_fract_z
   _atom_site_thermal_displace_type
   _atom_site_B_iso_or_equiv
   _atom_site_type_symbol
   B1       1.0    0.98969      0.01031      0.67465     Biso  1.000  B
   B2       1.0    0.01031      0.98969      0.32535     Biso  1.000  B
   B3       1.0    0.98969      0.65404      0.67465     Biso  1.000  B
   B4       1.0    0.01031      0.34596      0.32535     Biso  1.000  B
   B5       1.0    0.34596      0.01031      0.67465     Biso  1.000  B
   B6       1.0    0.65404      0.98969      0.32535     Biso  1.000  B
   B7       1.0    0.77885      0.22115      0.07274     Biso  1.000  B
   B8       1.0    0.22115      0.77885      0.92726     Biso  1.000  B
   B9       1.0    0.77885      0.63043      0.07274     Biso  1.000  B
   B10      1.0    0.22115      0.36957      0.92726     Biso  1.000  B
   B11      1.0    0.36957      0.22115      0.07274     Biso  1.000  B
   B12      1.0    0.63043      0.77885      0.92726     Biso  1.000  B
