#======================================================================

# CRYSTAL DATA

#----------------------------------------------------------------------

data_VESTA_phase_1


_pd_phase_name                         'Bi                                    '
_cell_length_a                         4.58866
_cell_length_b                         4.58866
_cell_length_c                         12.18223
_cell_angle_alpha                      90
_cell_angle_beta                       90
_cell_angle_gamma                      120
_symmetry_space_group_name_H-M         'P 1'
_symmetry_Int_Tables_number            1

loop_
_symmetry_equiv_pos_as_xyz
   'x, y, z'

loop_
   _atom_site_label
   _atom_site_occupancy
   _atom_site_fract_x
   _atom_site_fract_y
   _atom_site_fract_z
   _atom_site_thermal_displace_type
   _atom_site_B_iso_or_equiv
   _atom_site_type_symbol
   Bi1      1.0    0            0            0.23374     Biso  1.000  Bi
   Bi2      1.0    0            0            0.76626     Biso  1.000  Bi
   Bi3      1.0    0.66667      0.33333      0.56707     Biso  1.000  Bi
   Bi4      1.0    0.66667      0.33333      0.09959     Biso  1.000  Bi
   Bi5      1.0    0.33333      0.66667      0.90041     Biso  1.000  Bi
   Bi6      1.0    0.33333      0.66667      0.43293     Biso  1.000  Bi
