#======================================================================

# CRYSTAL DATA

#----------------------------------------------------------------------

data_VESTA_phase_1


_pd_phase_name                         'Br                                    '
_cell_length_a                         8.22860
_cell_length_b                         4.22731
_cell_length_c                         9.03323
_cell_angle_alpha                      90
_cell_angle_beta                       90
_cell_angle_gamma                      90
_symmetry_space_group_name_H-M         'P 1'
_symmetry_Int_Tables_number            1

loop_
_symmetry_equiv_pos_as_xyz
   'x, y, z'

loop_
   _atom_site_label
   _atom_site_occupancy
   _atom_site_fract_x
   _atom_site_fract_y
   _atom_site_fract_z
   _atom_site_thermal_displace_type
   _atom_site_B_iso_or_equiv
   _atom_site_type_symbol
   Br1      1.0    0            0.37574      0.88284     Biso  1.000  Br
   Br2      1.0    0            0.12426      0.38284     Biso  1.000  Br
   Br3      1.0    0            0.87574      0.61716     Biso  1.000  Br
   Br4      1.0    0            0.62426      0.11716     Biso  1.000  Br
   Br5      1.0    0.50000      0.87574      0.88284     Biso  1.000  Br
   Br6      1.0    0.50000      0.62426      0.38284     Biso  1.000  Br
   Br7      1.0    0.50000      0.37574      0.61716     Biso  1.000  Br
   Br8      1.0    0.50000      0.12426      0.11716     Biso  1.000  Br
