#======================================================================

# CRYSTAL DATA

#----------------------------------------------------------------------

data_VESTA_phase_1


_pd_phase_name                         'Cl                                    '
_cell_length_a                         7.77875
_cell_length_b                         4.34941
_cell_length_c                         9.02754
_cell_angle_alpha                      90
_cell_angle_beta                       90
_cell_angle_gamma                      90
_symmetry_space_group_name_H-M         'P 1'
_symmetry_Int_Tables_number            1

loop_
_symmetry_equiv_pos_as_xyz
   'x, y, z'

loop_
   _atom_site_label
   _atom_site_occupancy
   _atom_site_fract_x
   _atom_site_fract_y
   _atom_site_fract_z
   _atom_site_thermal_displace_type
   _atom_site_B_iso_or_equiv
   _atom_site_type_symbol
   Cl1      1.0    0            0.40882      0.89848     Biso  1.000  Cl
   Cl2      1.0    0            0.09118      0.39848     Biso  1.000  Cl
   Cl3      1.0    0            0.90882      0.60152     Biso  1.000  Cl
   Cl4      1.0    0            0.59118      0.10152     Biso  1.000  Cl
   Cl5      1.0    0.50000      0.90882      0.89848     Biso  1.000  Cl
   Cl6      1.0    0.50000      0.59118      0.39848     Biso  1.000  Cl
   Cl7      1.0    0.50000      0.40882      0.60152     Biso  1.000  Cl
   Cl8      1.0    0.50000      0.09118      0.10152     Biso  1.000  Cl
