#======================================================================

# CRYSTAL DATA

#----------------------------------------------------------------------

data_VESTA_phase_1


_pd_phase_name                         'H                                     '
_cell_length_a                         4.00759
_cell_length_b                         4.00759
_cell_length_c                         5.00307
_cell_angle_alpha                      90
_cell_angle_beta                       90
_cell_angle_gamma                      120
_symmetry_space_group_name_H-M         'P 1'
_symmetry_Int_Tables_number            1

loop_
_symmetry_equiv_pos_as_xyz
   'x, y, z'

loop_
   _atom_site_label
   _atom_site_occupancy
   _atom_site_fract_x
   _atom_site_fract_y
   _atom_site_fract_z
   _atom_site_thermal_displace_type
   _atom_site_B_iso_or_equiv
   _atom_site_type_symbol
   H1       1.0    0.33333      0.66667      0.17498     Biso  1.000  H
   H2       1.0    0.66667      0.33333      0.82502     Biso  1.000  H
   H3       1.0    0.66667      0.33333      0.67498     Biso  1.000  H
   H4       1.0    0.33333      0.66667      0.32502     Biso  1.000  H
