#======================================================================

# CRYSTAL DATA

#----------------------------------------------------------------------

data_VESTA_phase_1


_pd_phase_name                         'I                                     '
_cell_length_a                         8.57701
_cell_length_b                         4.55422
_cell_length_c                         10.18381
_cell_angle_alpha                      90
_cell_angle_beta                       90
_cell_angle_gamma                      90
_symmetry_space_group_name_H-M         'P 1'
_symmetry_Int_Tables_number            1

loop_
_symmetry_equiv_pos_as_xyz
   'x, y, z'

loop_
   _atom_site_label
   _atom_site_occupancy
   _atom_site_fract_x
   _atom_site_fract_y
   _atom_site_fract_z
   _atom_site_thermal_displace_type
   _atom_site_B_iso_or_equiv
   _atom_site_type_symbol
   I1       1.0    0            0.36410      0.87857     Biso  1.000  I
   I2       1.0    0            0.13590      0.37857     Biso  1.000  I
   I3       1.0    0            0.86410      0.62143     Biso  1.000  I
   I4       1.0    0            0.63590      0.12143     Biso  1.000  I
   I5       1.0    0.50000      0.86410      0.87857     Biso  1.000  I
   I6       1.0    0.50000      0.63590      0.37857     Biso  1.000  I
   I7       1.0    0.50000      0.36410      0.62143     Biso  1.000  I
   I8       1.0    0.50000      0.13590      0.12143     Biso  1.000  I
