#======================================================================

# CRYSTAL DATA

#----------------------------------------------------------------------

data_VESTA_phase_1


_pd_phase_name                         'N                                     '
_cell_length_a                         6.19019
_cell_length_b                         6.19019
_cell_length_c                         6.19019
_cell_angle_alpha                      90
_cell_angle_beta                       90
_cell_angle_gamma                      90
_symmetry_space_group_name_H-M         'P 1'
_symmetry_Int_Tables_number            1

loop_
_symmetry_equiv_pos_as_xyz
   'x, y, z'

loop_
   _atom_site_label
   _atom_site_occupancy
   _atom_site_fract_x
   _atom_site_fract_y
   _atom_site_fract_z
   _atom_site_thermal_displace_type
   _atom_site_B_iso_or_equiv
   _atom_site_type_symbol
   N1       1.0    0.05189      0.05189      0.05189     Biso  1.000  N
   N2       1.0    0.94811      0.94811      0.94811     Biso  1.000  N
   N3       1.0    0.44811      0.94811      0.55189     Biso  1.000  N
   N4       1.0    0.55189      0.05189      0.44811     Biso  1.000  N
   N5       1.0    0.94811      0.55189      0.44811     Biso  1.000  N
   N6       1.0    0.05189      0.44811      0.55189     Biso  1.000  N
   N7       1.0    0.55189      0.44811      0.94811     Biso  1.000  N
   N8       1.0    0.44811      0.55189      0.05189     Biso  1.000  N
