#======================================================================

# CRYSTAL DATA

#----------------------------------------------------------------------

data_VESTA_phase_1


_pd_phase_name                         'O                                     '
_cell_length_a                         4.27163
_cell_length_b                         4.27682
_cell_length_c                         4.57148
_cell_angle_alpha                      90
_cell_angle_beta                       66.72128
_cell_angle_gamma                      90
_symmetry_space_group_name_H-M         'P 1'
_symmetry_Int_Tables_number            1

loop_
_symmetry_equiv_pos_as_xyz
   'x, y, z'

loop_
   _atom_site_label
   _atom_site_occupancy
   _atom_site_fract_x
   _atom_site_fract_y
   _atom_site_fract_z
   _atom_site_thermal_displace_type
   _atom_site_B_iso_or_equiv
   _atom_site_type_symbol
   O1       1.0    0.93782      0            0.14667     Biso  1.000  O
   O2       1.0    0.06218      0            0.85333     Biso  1.000  O
   O3       1.0    0.43782      0.50000      0.14667     Biso  1.000  O
   O4       1.0    0.56218      0.50000      0.85333     Biso  1.000  O
