#======================================================================

# CRYSTAL DATA

#----------------------------------------------------------------------

data_VESTA_phase_1


_pd_phase_name                         'P                                     '
_cell_length_a                         3.30466
_cell_length_b                         11.31694
_cell_length_c                         4.57327
_cell_angle_alpha                      90
_cell_angle_beta                       90
_cell_angle_gamma                      90
_symmetry_space_group_name_H-M         'P 1'
_symmetry_Int_Tables_number            1

loop_
_symmetry_equiv_pos_as_xyz
   'x, y, z'

loop_
   _atom_site_label
   _atom_site_occupancy
   _atom_site_fract_x
   _atom_site_fract_y
   _atom_site_fract_z
   _atom_site_thermal_displace_type
   _atom_site_B_iso_or_equiv
   _atom_site_type_symbol
   P1       1.0    0            0.09357      0.08719     Biso  1.000  P
   P2       1.0    0            0.90643      0.91281     Biso  1.000  P
   P3       1.0    0            0.40643      0.58719     Biso  1.000  P
   P4       1.0    0            0.59357      0.41281     Biso  1.000  P
   P5       1.0    0.50000      0.59357      0.08719     Biso  1.000  P
   P6       1.0    0.50000      0.40643      0.91281     Biso  1.000  P
   P7       1.0    0.50000      0.90643      0.58719     Biso  1.000  P
   P8       1.0    0.50000      0.09357      0.41281     Biso  1.000  P
