#======================================================================

# CRYSTAL DATA

#----------------------------------------------------------------------

data_VESTA_phase_1


_pd_phase_name                         'S                                     '
_cell_length_a                         2.58153
_cell_length_b                         2.58153
_cell_length_c                         2.58153
_cell_angle_alpha                      91.45541
_cell_angle_beta                       91.45541
_cell_angle_gamma                      91.45541
_symmetry_space_group_name_H-M         'P 1'
_symmetry_Int_Tables_number            1

loop_
_symmetry_equiv_pos_as_xyz
   'x, y, z'

loop_
   _atom_site_label
   _atom_site_occupancy
   _atom_site_fract_x
   _atom_site_fract_y
   _atom_site_fract_z
   _atom_site_thermal_displace_type
   _atom_site_B_iso_or_equiv
   _atom_site_type_symbol
   S1       1.0    0            0            0           Biso  1.000  S
