#======================================================================

# CRYSTAL DATA

#----------------------------------------------------------------------

data_VESTA_phase_1


_pd_phase_name                         'Sb                                    '
_cell_length_a                         4.38047
_cell_length_b                         4.38047
_cell_length_c                         11.47804
_cell_angle_alpha                      90
_cell_angle_beta                       90
_cell_angle_gamma                      120
_symmetry_space_group_name_H-M         'P 1'
_symmetry_Int_Tables_number            1

loop_
_symmetry_equiv_pos_as_xyz
   'x, y, z'

loop_
   _atom_site_label
   _atom_site_occupancy
   _atom_site_fract_x
   _atom_site_fract_y
   _atom_site_fract_z
   _atom_site_thermal_displace_type
   _atom_site_B_iso_or_equiv
   _atom_site_type_symbol
   Sb1      1.0    0            0            0.23332     Biso  1.000  Sb
   Sb2      1.0    0            0            0.76668     Biso  1.000  Sb
   Sb3      1.0    0.66667      0.33333      0.56666     Biso  1.000  Sb
   Sb4      1.0    0.66667      0.33333      0.10001     Biso  1.000  Sb
   Sb5      1.0    0.33333      0.66667      0.89999     Biso  1.000  Sb
   Sb6      1.0    0.33333      0.66667      0.43334     Biso  1.000  Sb
