#======================================================================

# CRYSTAL DATA

#----------------------------------------------------------------------

data_VESTA_phase_1


_pd_phase_name                         'Se                                    '
_cell_length_a                         4.52464
_cell_length_b                         4.52464
_cell_length_c                         5.04978
_cell_angle_alpha                      90
_cell_angle_beta                       90
_cell_angle_gamma                      120
_symmetry_space_group_name_H-M         'P 1'
_symmetry_Int_Tables_number            1

loop_
_symmetry_equiv_pos_as_xyz
   'x, y, z'

loop_
   _atom_site_label
   _atom_site_occupancy
   _atom_site_fract_x
   _atom_site_fract_y
   _atom_site_fract_z
   _atom_site_thermal_displace_type
   _atom_site_B_iso_or_equiv
   _atom_site_type_symbol
   Se1      1.0    0.21903      0            0.33333     Biso  1.000  Se
   Se2      1.0    0            0.21903      0.66667     Biso  1.000  Se
   Se3      1.0    0.78097      0.78097      0           Biso  1.000  Se
