#======================================================================

# CRYSTAL DATA

#----------------------------------------------------------------------

data_VESTA_phase_1


_pd_phase_name                         'Te                                    '
_cell_length_a                         4.50788
_cell_length_b                         4.50788
_cell_length_c                         5.96346
_cell_angle_alpha                      90
_cell_angle_beta                       90
_cell_angle_gamma                      120
_symmetry_space_group_name_H-M         'P 1'
_symmetry_Int_Tables_number            1

loop_
_symmetry_equiv_pos_as_xyz
   'x, y, z'

loop_
   _atom_site_label
   _atom_site_occupancy
   _atom_site_fract_x
   _atom_site_fract_y
   _atom_site_fract_z
   _atom_site_thermal_displace_type
   _atom_site_B_iso_or_equiv
   _atom_site_type_symbol
   Te1      1.0    0.26966      0            0.33333     Biso  1.000  Te
   Te2      1.0    0            0.26966      0.66667     Biso  1.000  Te
   Te3      1.0    0.73034      0.73034      0           Biso  1.000  Te
