data_Ge2Sb2Te5_(Fm3m)
_audit_creation_method         'generated by CrystalMaker 9.2.9'
_publ_section_comment
;
Ge2.005Sb2.095Te5,RT,Vb=40.1Ge41.9Sb,Yamada&Matsunaga(2000)R=2.3%(XPD) Ge
2.005Sb2.095Te5,RT,Vb=40.1Ge41.9Sb,Yamada&Matsunaga(2000)R=2.3%(XPD) 
;
_cell_length_a                   6.0310(0)
_cell_length_b                   6.0310(0)
_cell_length_c                   6.0310(0)
_cell_angle_alpha               90.0000(0)
_cell_angle_beta                90.0000(0)
_cell_angle_gamma               90.0000(0)

_symmetry_space_group_name_H-M     'F m -3 m'
_symmetry_Int_Tables_number         225
_symmetry_cell_setting             cubic
loop_
_symmetry_equiv_pos_as_xyz
'+x,+y,+z'
'+x,1/2+y,1/2+z'
'1/2+x,1/2+y,+z'
'1/2+x,+y,1/2+z'
'+z,+x,+y'
'+z,1/2+x,1/2+y'
'1/2+z,1/2+x,+y'
'1/2+z,+x,1/2+y'
'+y,+z,+x'
'+y,1/2+z,1/2+x'
'1/2+y,1/2+z,+x'
'1/2+y,+z,1/2+x'
'+x,+y,-z'
'+x,1/2+y,1/2-z'
'1/2+x,1/2+y,-z'
'1/2+x,+y,1/2-z'
'+z,+x,-y'
'+z,1/2+x,1/2-y'
'1/2+z,1/2+x,-y'
'1/2+z,+x,1/2-y'
'+y,+z,-x'
'+y,1/2+z,1/2-x'
'1/2+y,1/2+z,-x'
'1/2+y,+z,1/2-x'
'-x,+y,+z'
'-x,1/2+y,1/2+z'
'1/2-x,1/2+y,+z'
'1/2-x,+y,1/2+z'
'-z,+x,+y'
'-z,1/2+x,1/2+y'
'1/2-z,1/2+x,+y'
'1/2-z,+x,1/2+y'
'-y,+z,+x'
'-y,1/2+z,1/2+x'
'1/2-y,1/2+z,+x'
'1/2-y,+z,1/2+x'
'-x,+y,-z'
'-x,1/2+y,1/2-z'
'1/2-x,1/2+y,-z'
'1/2-x,+y,1/2-z'
'-z,+x,-y'
'-z,1/2+x,1/2-y'
'1/2-z,1/2+x,-y'
'1/2-z,+x,1/2-y'
'-y,+z,-x'
'-y,1/2+z,1/2-x'
'1/2-y,1/2+z,-x'
'1/2-y,+z,1/2-x'
'+y,+x,+z'
'+y,1/2+x,1/2+z'
'1/2+y,1/2+x,+z'
'1/2+y,+x,1/2+z'
'+x,+z,+y'
'+x,1/2+z,1/2+y'
'1/2+x,1/2+z,+y'
'1/2+x,+z,1/2+y'
'+z,+y,+x'
'+z,1/2+y,1/2+x'
'1/2+z,1/2+y,+x'
'1/2+z,+y,1/2+x'
'+y,+x,-z'
'+y,1/2+x,1/2-z'
'1/2+y,1/2+x,-z'
'1/2+y,+x,1/2-z'
'+x,+z,-y'
'+x,1/2+z,1/2-y'
'1/2+x,1/2+z,-y'
'1/2+x,+z,1/2-y'
'+z,+y,-x'
'+z,1/2+y,1/2-x'
'1/2+z,1/2+y,-x'
'1/2+z,+y,1/2-x'
'+y,-x,+z'
'+y,1/2-x,1/2+z'
'1/2+y,1/2-x,+z'
'1/2+y,-x,1/2+z'
'+x,-z,+y'
'+x,1/2-z,1/2+y'
'1/2+x,1/2-z,+y'
'1/2+x,-z,1/2+y'
'+z,-y,+x'
'+z,1/2-y,1/2+x'
'1/2+z,1/2-y,+x'
'1/2+z,-y,1/2+x'
'+y,-x,-z'
'+y,1/2-x,1/2-z'
'1/2+y,1/2-x,-z'
'1/2+y,-x,1/2-z'
'+x,-z,-y'
'+x,1/2-z,1/2-y'
'1/2+x,1/2-z,-y'
'1/2+x,-z,1/2-y'
'+z,-y,-x'
'+z,1/2-y,1/2-x'
'1/2+z,1/2-y,-x'
'1/2+z,-y,1/2-x'
'-x,-y,-z'
'-x,1/2-y,1/2-z'
'1/2-x,1/2-y,-z'
'1/2-x,-y,1/2-z'
'-z,-x,-y'
'-z,1/2-x,1/2-y'
'1/2-z,1/2-x,-y'
'1/2-z,-x,1/2-y'
'-y,-z,-x'
'-y,1/2-z,1/2-x'
'1/2-y,1/2-z,-x'
'1/2-y,-z,1/2-x'
'-x,-y,+z'
'-x,1/2-y,1/2+z'
'1/2-x,1/2-y,+z'
'1/2-x,-y,1/2+z'
'-z,-x,+y'
'-z,1/2-x,1/2+y'
'1/2-z,1/2-x,+y'
'1/2-z,-x,1/2+y'
'-y,-z,+x'
'-y,1/2-z,1/2+x'
'1/2-y,1/2-z,+x'
'1/2-y,-z,1/2+x'
'+x,-y,-z'
'+x,1/2-y,1/2-z'
'1/2+x,1/2-y,-z'
'1/2+x,-y,1/2-z'
'+z,-x,-y'
'+z,1/2-x,1/2-y'
'1/2+z,1/2-x,-y'
'1/2+z,-x,1/2-y'
'+y,-z,-x'
'+y,1/2-z,1/2-x'
'1/2+y,1/2-z,-x'
'1/2+y,-z,1/2-x'
'+x,-y,+z'
'+x,1/2-y,1/2+z'
'1/2+x,1/2-y,+z'
'1/2+x,-y,1/2+z'
'+z,-x,+y'
'+z,1/2-x,1/2+y'
'1/2+z,1/2-x,+y'
'1/2+z,-x,1/2+y'
'+y,-z,+x'
'+y,1/2-z,1/2+x'
'1/2+y,1/2-z,+x'
'1/2+y,-z,1/2+x'
'-y,-x,-z'
'-y,1/2-x,1/2-z'
'1/2-y,1/2-x,-z'
'1/2-y,-x,1/2-z'
'-x,-z,-y'
'-x,1/2-z,1/2-y'
'1/2-x,1/2-z,-y'
'1/2-x,-z,1/2-y'
'-z,-y,-x'
'-z,1/2-y,1/2-x'
'1/2-z,1/2-y,-x'
'1/2-z,-y,1/2-x'
'-y,-x,+z'
'-y,1/2-x,1/2+z'
'1/2-y,1/2-x,+z'
'1/2-y,-x,1/2+z'
'-x,-z,+y'
'-x,1/2-z,1/2+y'
'1/2-x,1/2-z,+y'
'1/2-x,-z,1/2+y'
'-z,-y,+x'
'-z,1/2-y,1/2+x'
'1/2-z,1/2-y,+x'
'1/2-z,-y,1/2+x'
'-y,+x,-z'
'-y,1/2+x,1/2-z'
'1/2-y,1/2+x,-z'
'1/2-y,+x,1/2-z'
'-x,+z,-y'
'-x,1/2+z,1/2-y'
'1/2-x,1/2+z,-y'
'1/2-x,+z,1/2-y'
'-z,+y,-x'
'-z,1/2+y,1/2-x'
'1/2-z,1/2+y,-x'
'1/2-z,+y,1/2-x'
'-y,+x,+z'
'-y,1/2+x,1/2+z'
'1/2-y,1/2+x,+z'
'1/2-y,+x,1/2+z'
'-x,+z,+y'
'-x,1/2+z,1/2+y'
'1/2-x,1/2+z,+y'
'1/2-x,+z,1/2+y'
'-z,+y,+x'
'-z,1/2+y,1/2+x'
'1/2-z,1/2+y,+x'
'1/2-z,+y,1/2+x'

loop_
_atom_site_label
_atom_site_type_symbol
_atom_site_occupancy
_atom_site_fract_x
_atom_site_fract_y
_atom_site_fract_z
    Ge    Ge 0.4000      0.5000    0.5000    0.5000
    Ge    Sb 0.4000      0.5000    0.5000    0.5000
    Te    Te 1.0000      0.0000    0.0000    0.0000
