#CIF1.1
##########################################################################
#               Crystallographic Information Format file
#               Produced by PyCifRW module
#
#  This is a CIF file.  CIF has been adopted by the International
#  Union of Crystallography as the standard for data archiving and
#  transmission.
#
#  For information on this file format, follow the CIF links at
#  http://www.iucr.org
##########################################################################

data_FePO4
_symmetry_space_group_name_H-M          'P 1'
_cell_length_a                          10.4117668699
_cell_length_b                          6.06717187997
_cell_length_c                          4.75948953998
loop_ # sometimes this is in a loop (incorrectly)
_cell_angle_alpha
91.0
_cell_angle_beta                        92.0
_cell_angle_gamma                       93.0
_chemical_name_systematic               'Generated by pymatgen'
_symmetry_Int_Tables_number             1
_chemical_formula_structural            FePO4
_chemical_formula_sum                   'Fe4 P4 O16'
_cell_volume                            300.65685512
_cell_formula_units_Z                   4
loop_
  _symmetry_equiv_pos_site_id
  _symmetry_equiv_pos_as_xyz
   1  'x, y, z'

loop_
  _atom_site_type_symbol
  _atom_site_label
  _atom_site_symmetry_multiplicity
  _atom_site_fract_x
  _atom_site_fract_y
  _atom_site_fract_z
  _atom_site_attached_hydrogens
  _atom_site_B_iso_or_equiv
  _atom_site_occupancy
    Fe  Fe1  1  0.218728  0.750000  0.474867  0  .  1
    Fe  JJ2  1  0.281272  0.250000  0.974867  0  .  1
    # there's a typo here, parser should read the symbol from the
    # _atom_site_type_symbol
    Fe  Fe3  1  0.718728  0.750000  0.025133  0  .  1
    Fe  Fe4  1  0.781272  0.250000  0.525133  0  .  1
    P  P5  1  0.094613  0.250000  0.418243  0  .  1
    P  P6  1  0.405387  0.750000  0.918243  0  .  1
    P  P7  1  0.594613  0.250000  0.081757  0  .  1
    P  P8  1  0.905387  0.750000  0.581757  0  .  1
    O  O9  1  0.043372  0.750000  0.707138  0  .  1
    O  O10  1  0.096642  0.250000  0.741320  0  .  1
    O  O11  1  0.165710  0.046072  0.285384  0  .  1
    O  O12  1  0.165710  0.453928  0.285384  0  .  1
    O  O13  1  0.334290  0.546072  0.785384  0  .  1
    O  O14  1  0.334290  0.953928  0.785384  0  .  1
    O  O15  1  0.403358  0.750000  0.241320  0  .  1
    O  O16  1  0.456628  0.250000  0.207138  0  .  1
    O  O17  1  0.543372  0.750000  0.792862  0  .  1
    O  O18  1  0.596642  0.250000  0.758680  0  .  1
    O  O19  1  0.665710  0.046072  0.214616  0  .  1
    O  O20  1  0.665710  0.453928  0.214616  0  .  1
    O  O21  1  0.834290  0.546072  0.714616  0  .  1
    O  O22  1  0.834290  0.953928  0.714616  0  .  1
    O  O23  1  0.903358  0.750000  0.258680  0  .  1
    O  O24  1  0.956628  0.250000  0.292862  0  .  1
