data_global _chemical_name MyName
_cell_length_a 5.672980
_cell_length_b 7.244389
_cell_length_c 7.244389
_cell_angle_alpha 76.911995
_cell_angle_beta 90.000000
_cell_angle_gamma 90.000000
_symmetry_space_group_name_H-M 'P 1'
loop_
_atom_site_label
_atom_site_fract_x
_atom_site_fract_y
_atom_site_fract_z
Ti 1.000000 0.520517 0.979483
Zr 1.000000 0.020517 0.479483
Zr 0.500000 0.768429 0.231571
Ti 0.500000 0.268429 0.731571
Pb 1.000000 0.989570 0.010430
Pb 1.000000 0.489570 0.510430
Pb 0.500000 0.739570 0.760430
Pb 0.500000 0.239570 0.260430
O 0.741570 0.698259 0.060171
O 0.741570 0.198259 0.560171
O 0.258430 0.698259 0.060171
O 0.258430 0.198259 0.560171
O 0.741570 0.439829 0.801741
O 0.741570 0.939829 0.301741
O 0.258430 0.439829 0.801741
O 0.258430 0.939829 0.301741
O 0.500000 0.574332 0.425668
O 0.500000 0.074332 0.925668
O 1.000000 0.300907 0.199093
O 1.000000 0.800907 0.699093
